const char *g_gpgpusim_version_string = "GPGPU-Sim Simulator Version 4.0.0 - Vulkan-Sim version 1.0.0 ";
